
Version,
  8.7;                                    !- Version Identifier

LifeCycleCost:Parameters,
  {2226661d-9a41-493b-a668-2f7b28c19ee4}, !- Name
  EndOfYear,                              !- Discounting Convention
  ConstantDollar,                         !- Inflation Approach
  0.03,                                   !- Real Discount Rate
  ,                                       !- Nominal Discount Rate
  ,                                       !- Inflation
  ,                                       !- Base Date Month
  2011,                                   !- Base Date Year
  ,                                       !- Service Date Month
  2011,                                   !- Service Date Year
  25,                                     !- Length of Study Period in Years
  ,                                       !- Tax rate
  None;                                   !- Depreciation Method

LifeCycleCost:UsePriceEscalation,
  U.S. Avg  Commercial-Electricity,       !- Name
  Electricity,                            !- Resource
  2011,                                   !- Escalation Start Year
  January,                                !- Escalation Start Month
  0.9838,                                 !- Year Escalation 1
  0.9730,                                 !- Year Escalation 2
  0.9632,                                 !- Year Escalation 3
  0.9611,                                 !- Year Escalation 4
  0.9571,                                 !- Year Escalation 5
  0.9553,                                 !- Year Escalation 6
  0.9539,                                 !- Year Escalation 7
  0.9521,                                 !- Year Escalation 8
  0.9546,                                 !- Year Escalation 9
  0.9550,                                 !- Year Escalation 10
  0.9553,                                 !- Year Escalation 11
  0.9564,                                 !- Year Escalation 12
  0.9575,                                 !- Year Escalation 13
  0.9596,                                 !- Year Escalation 14
  0.9618,                                 !- Year Escalation 15
  0.9614,                                 !- Year Escalation 16
  0.9618,                                 !- Year Escalation 17
  0.9618,                                 !- Year Escalation 18
  0.9593,                                 !- Year Escalation 19
  0.9589,                                 !- Year Escalation 20
  0.9607,                                 !- Year Escalation 21
  0.9625,                                 !- Year Escalation 22
  0.9650,                                 !- Year Escalation 23
  0.9708,                                 !- Year Escalation 24
  0.9751,                                 !- Year Escalation 25
  0.9762,                                 !- Year Escalation 26
  0.9766,                                 !- Year Escalation 27
  0.9766,                                 !- Year Escalation 28
  0.9769,                                 !- Year Escalation 29
  0.9773;                                 !- Year Escalation 30

LifeCycleCost:UsePriceEscalation,
  U.S. Avg  Commercial-Distillate Oil,    !- Name
  FuelOil#1,                              !- Resource
  2011,                                   !- Escalation Start Year
  January,                                !- Escalation Start Month
  0.9714,                                 !- Year Escalation 1
  0.9730,                                 !- Year Escalation 2
  0.9942,                                 !- Year Escalation 3
  1.0164,                                 !- Year Escalation 4
  1.0541,                                 !- Year Escalation 5
  1.0928,                                 !- Year Escalation 6
  1.1267,                                 !- Year Escalation 7
  1.1580,                                 !- Year Escalation 8
  1.1792,                                 !- Year Escalation 9
  1.1967,                                 !- Year Escalation 10
  1.2200,                                 !- Year Escalation 11
  1.2333,                                 !- Year Escalation 12
  1.2566,                                 !- Year Escalation 13
  1.2709,                                 !- Year Escalation 14
  1.2826,                                 !- Year Escalation 15
  1.2985,                                 !- Year Escalation 16
  1.3102,                                 !- Year Escalation 17
  1.3250,                                 !- Year Escalation 18
  1.3261,                                 !- Year Escalation 19
  1.3282,                                 !- Year Escalation 20
  1.3324,                                 !- Year Escalation 21
  1.3356,                                 !- Year Escalation 22
  1.3431,                                 !- Year Escalation 23
  1.3510,                                 !- Year Escalation 24
  1.3568,                                 !- Year Escalation 25
  1.3606,                                 !- Year Escalation 26
  1.3637,                                 !- Year Escalation 27
  1.3674,                                 !- Year Escalation 28
  1.3706,                                 !- Year Escalation 29
  1.3743;                                 !- Year Escalation 30

LifeCycleCost:UsePriceEscalation,
  U.S. Avg  Commercial-Residual Oil,      !- Name
  FuelOil#2,                              !- Resource
  2011,                                   !- Escalation Start Year
  January,                                !- Escalation Start Month
  0.8469,                                 !- Year Escalation 1
  0.8257,                                 !- Year Escalation 2
  0.8681,                                 !- Year Escalation 3
  0.8988,                                 !- Year Escalation 4
  0.9289,                                 !- Year Escalation 5
  0.9604,                                 !- Year Escalation 6
  0.9897,                                 !- Year Escalation 7
  1.0075,                                 !- Year Escalation 8
  1.0314,                                 !- Year Escalation 9
  1.0554,                                 !- Year Escalation 10
  1.0861,                                 !- Year Escalation 11
  1.1278,                                 !- Year Escalation 12
  1.1497,                                 !- Year Escalation 13
  1.1620,                                 !- Year Escalation 14
  1.1743,                                 !- Year Escalation 15
  1.1852,                                 !- Year Escalation 16
  1.1948,                                 !- Year Escalation 17
  1.2037,                                 !- Year Escalation 18
  1.2071,                                 !- Year Escalation 19
  1.2119,                                 !- Year Escalation 20
  1.2139,                                 !- Year Escalation 21
  1.2194,                                 !- Year Escalation 22
  1.2276,                                 !- Year Escalation 23
  1.2365,                                 !- Year Escalation 24
  1.2420,                                 !- Year Escalation 25
  1.2461,                                 !- Year Escalation 26
  1.2509,                                 !- Year Escalation 27
  1.2550,                                 !- Year Escalation 28
  1.2591,                                 !- Year Escalation 29
  1.2638;                                 !- Year Escalation 30

LifeCycleCost:UsePriceEscalation,
  U.S. Avg  Commercial-Natural gas,       !- Name
  NaturalGas,                             !- Resource
  2011,                                   !- Escalation Start Year
  January,                                !- Escalation Start Month
  0.9823,                                 !- Year Escalation 1
  0.9557,                                 !- Year Escalation 2
  0.9279,                                 !- Year Escalation 3
  0.9257,                                 !- Year Escalation 4
  0.9346,                                 !- Year Escalation 5
  0.9412,                                 !- Year Escalation 6
  0.9512,                                 !- Year Escalation 7
  0.9645,                                 !- Year Escalation 8
  0.9856,                                 !- Year Escalation 9
  1.0067,                                 !- Year Escalation 10
  1.0222,                                 !- Year Escalation 11
  1.0410,                                 !- Year Escalation 12
  1.0610,                                 !- Year Escalation 13
  1.0787,                                 !- Year Escalation 14
  1.0942,                                 !- Year Escalation 15
  1.1098,                                 !- Year Escalation 16
  1.1220,                                 !- Year Escalation 17
  1.1308,                                 !- Year Escalation 18
  1.1386,                                 !- Year Escalation 19
  1.1486,                                 !- Year Escalation 20
  1.1619,                                 !- Year Escalation 21
  1.1763,                                 !- Year Escalation 22
  1.1918,                                 !- Year Escalation 23
  1.2118,                                 !- Year Escalation 24
  1.2284,                                 !- Year Escalation 25
  1.2439,                                 !- Year Escalation 26
  1.2605,                                 !- Year Escalation 27
  1.2772,                                 !- Year Escalation 28
  1.2938,                                 !- Year Escalation 29
  1.3115;                                 !- Year Escalation 30

LifeCycleCost:UsePriceEscalation,
  U.S. Avg  Commercial-Coal,              !- Name
  Coal,                                   !- Resource
  2011,                                   !- Escalation Start Year
  January,                                !- Escalation Start Month
  0.9970,                                 !- Year Escalation 1
  1.0089,                                 !- Year Escalation 2
  1.0089,                                 !- Year Escalation 3
  0.9941,                                 !- Year Escalation 4
  0.9941,                                 !- Year Escalation 5
  1.0000,                                 !- Year Escalation 6
  1.0030,                                 !- Year Escalation 7
  1.0059,                                 !- Year Escalation 8
  1.0089,                                 !- Year Escalation 9
  1.0119,                                 !- Year Escalation 10
  1.0148,                                 !- Year Escalation 11
  1.0178,                                 !- Year Escalation 12
  1.0208,                                 !- Year Escalation 13
  1.0267,                                 !- Year Escalation 14
  1.0297,                                 !- Year Escalation 15
  1.0356,                                 !- Year Escalation 16
  1.0415,                                 !- Year Escalation 17
  1.0534,                                 !- Year Escalation 18
  1.0564,                                 !- Year Escalation 19
  1.0593,                                 !- Year Escalation 20
  1.0653,                                 !- Year Escalation 21
  1.0712,                                 !- Year Escalation 22
  1.0742,                                 !- Year Escalation 23
  1.0801,                                 !- Year Escalation 24
  1.0831,                                 !- Year Escalation 25
  1.0831,                                 !- Year Escalation 26
  1.0861,                                 !- Year Escalation 27
  1.0890,                                 !- Year Escalation 28
  1.0920,                                 !- Year Escalation 29
  1.0950;                                 !- Year Escalation 30

Building,
  DOE Ref 1980-2004-RetailStandalone-ASHRAE 169-2006-1A created: 2017-12-20 15:41:07 -0700, !- Name
  0,                                      !- North Axis {deg}
  City,                                   !- Terrain
  0.04,                                   !- Loads Convergence Tolerance Value
  0.2,                                    !- Temperature Convergence Tolerance Value {deltaC}
  FullInteriorAndExterior,                !- Solar Distribution
  25,                                     !- Maximum Number of Warmup Days
  6;                                      !- Minimum Number of Warmup Days

Zone,
  Back_Space ZN,                          !- Name
  0,                                      !- Direction of Relative North {deg}
  0,                                      !- X Origin {m}
  35.27,                                  !- Y Origin {m}
  0,                                      !- Z Origin {m}
  ,                                       !- Type
  ,                                       !- Multiplier
  ,                                       !- Ceiling Height {m}
  ,                                       !- Volume {m3}
  ,                                       !- Floor Area {m2}
  ,                                       !- Zone Inside Convection Algorithm
  ,                                       !- Zone Outside Convection Algorithm
  Yes;                                    !- Part of Total Floor Area

BuildingSurface:Detailed,
  Back_Space_Floor,                       !- Name
  Floor,                                  !- Surface Type
  ext-slab,                               !- Construction Name
  Back_Space ZN,                          !- Zone Name
  Ground,                                 !- Outside Boundary Condition
  ,                                       !- Outside Boundary Condition Object
  NoSun,                                  !- Sun Exposure
  NoWind,                                 !- Wind Exposure
  ,                                       !- View Factor to Ground
  ,                                       !- Number of Vertices
  54.27, 7, 0,                            !- X,Y,Z Vertex 1 {m}
  54.27, 0, 0,                            !- X,Y,Z Vertex 2 {m}
  0, 0, 0,                                !- X,Y,Z Vertex 3 {m}
  0, 7, 0;                                !- X,Y,Z Vertex 4 {m}

BuildingSurface:Detailed,
  Back_Space_Roof,                        !- Name
  Roof,                                   !- Surface Type
  Typical IEAD Roof R-13.51 adj roof insulation adj roof insulation, !- Construction Name
  Back_Space ZN,                          !- Zone Name
  Outdoors,                               !- Outside Boundary Condition
  ,                                       !- Outside Boundary Condition Object
  SunExposed,                             !- Sun Exposure
  WindExposed,                            !- Wind Exposure
  ,                                       !- View Factor to Ground
  ,                                       !- Number of Vertices
  54.27, 0, 6.096,                        !- X,Y,Z Vertex 1 {m}
  54.27, 7, 6.096,                        !- X,Y,Z Vertex 2 {m}
  0, 7, 6.096,                            !- X,Y,Z Vertex 3 {m}
  0, 0, 6.096;                            !- X,Y,Z Vertex 4 {m}

BuildingSurface:Detailed,
  Back_Space_Wall_East,                   !- Name
  Wall,                                   !- Surface Type
  Typical Insulated Exterior Mass Wall adj ext wall insulation, !- Construction Name
  Back_Space ZN,                          !- Zone Name
  Outdoors,                               !- Outside Boundary Condition
  ,                                       !- Outside Boundary Condition Object
  SunExposed,                             !- Sun Exposure
  WindExposed,                            !- Wind Exposure
  ,                                       !- View Factor to Ground
  ,                                       !- Number of Vertices
  54.27, 0, 6.096,                        !- X,Y,Z Vertex 1 {m}
  54.27, 0, 0,                            !- X,Y,Z Vertex 2 {m}
  54.27, 7, 0,                            !- X,Y,Z Vertex 3 {m}
  54.27, 7, 6.096;                        !- X,Y,Z Vertex 4 {m}

BuildingSurface:Detailed,
  Back_Space_Wall_North,                  !- Name
  Wall,                                   !- Surface Type
  Typical Insulated Exterior Mass Wall adj ext wall insulation, !- Construction Name
  Back_Space ZN,                          !- Zone Name
  Outdoors,                               !- Outside Boundary Condition
  ,                                       !- Outside Boundary Condition Object
  SunExposed,                             !- Sun Exposure
  WindExposed,                            !- Wind Exposure
  ,                                       !- View Factor to Ground
  ,                                       !- Number of Vertices
  54.27, 7, 6.096,                        !- X,Y,Z Vertex 1 {m}
  54.27, 7, 0,                            !- X,Y,Z Vertex 2 {m}
  0, 7, 0,                                !- X,Y,Z Vertex 3 {m}
  0, 7, 6.096;                            !- X,Y,Z Vertex 4 {m}

BuildingSurface:Detailed,
  Back_Space_Wall_South,                  !- Name
  Wall,                                   !- Surface Type
  Typical Interior Wall,                  !- Construction Name
  Back_Space ZN,                          !- Zone Name
  Surface,                                !- Outside Boundary Condition
  Core_Retail_Wall_North,                 !- Outside Boundary Condition Object
  NoSun,                                  !- Sun Exposure
  NoWind,                                 !- Wind Exposure
  ,                                       !- View Factor to Ground
  ,                                       !- Number of Vertices
  0, 0, 6.096,                            !- X,Y,Z Vertex 1 {m}
  0, 0, 0,                                !- X,Y,Z Vertex 2 {m}
  54.27, 0, 0,                            !- X,Y,Z Vertex 3 {m}
  54.27, 0, 6.096;                        !- X,Y,Z Vertex 4 {m}

BuildingSurface:Detailed,
  Back_Space_Wall_West,                   !- Name
  Wall,                                   !- Surface Type
  Typical Insulated Exterior Mass Wall adj ext wall insulation, !- Construction Name
  Back_Space ZN,                          !- Zone Name
  Outdoors,                               !- Outside Boundary Condition
  ,                                       !- Outside Boundary Condition Object
  SunExposed,                             !- Sun Exposure
  WindExposed,                            !- Wind Exposure
  ,                                       !- View Factor to Ground
  ,                                       !- Number of Vertices
  0, 7, 6.096,                            !- X,Y,Z Vertex 1 {m}
  0, 7, 0,                                !- X,Y,Z Vertex 2 {m}
  0, 0, 0,                                !- X,Y,Z Vertex 3 {m}
  0, 0, 6.096;                            !- X,Y,Z Vertex 4 {m}

InternalMass,
  Back_Space Mass,                        !- Name
  InteriorFurnishings,                    !- Construction Name
  Back_Space ZN,                          !- Zone Name
  759.78;                                 !- Surface Area {m2}

ZoneControl:Thermostat,
  Back_Space ZN Thermostat,               !- Name
  Back_Space ZN,                          !- Zone or ZoneList Name
  Back_Space ZN Thermostat Schedule,      !- Control Type Schedule Name
  ThermostatSetpoint:DualSetpoint,        !- Control Object Type 1
  Retail Back_Space Thermostat 1;         !- Control Name 1

Schedule:Compact,
  Back_Space ZN Thermostat Schedule,      !- Name
  Back_Space ZN Thermostat Schedule Type Limits, !- Schedule Type Limits Name
  Through: 12/31,                         !- Field 1
  For: AllDays,                           !- Field 2
  Until: 24:00,                           !- Field 3
  4;                                      !- Field 4

ScheduleTypeLimits,
  Back_Space ZN Thermostat Schedule Type Limits, !- Name
  0,                                      !- Lower Limit Value {BasedOnField A3}
  4,                                      !- Upper Limit Value {BasedOnField A3}
  DISCRETE;                               !- Numeric Type

ThermostatSetpoint:DualSetpoint,
  Retail Back_Space Thermostat 1,         !- Name
  Retail HtgSetp,                         !- Heating Setpoint Temperature Schedule Name
  Retail ClgSetp;                         !- Cooling Setpoint Temperature Schedule Name

ScheduleTypeLimits,
  Temperature,                            !- Name
  ,                                       !- Lower Limit Value {BasedOnField A3}
  ,                                       !- Upper Limit Value {BasedOnField A3}
  Continuous,                             !- Numeric Type
  temperature;                            !- Unit Type

Schedule:Day:Interval,
  Retail HtgSetp Sun Day,                 !- Name
  Temperature,                            !- Schedule Type Limits Name
  No,                                     !- Interpolate to Timestep
  08:00,                                  !- Time 1 {hh:mm}
  15.5600017971463,                       !- Value Until Time 1
  17:00,                                  !- Time 2 {hh:mm}
  21.1100006103516,                       !- Value Until Time 2
  24:00,                                  !- Time 3 {hh:mm}
  15.5599996778701;                       !- Value Until Time 3

Schedule:Day:Interval,
  Retail HtgSetp Default,                 !- Name
  Temperature,                            !- Schedule Type Limits Name
  No,                                     !- Interpolate to Timestep
  06:00,                                  !- Time 1 {hh:mm}
  15.5600017971463,                       !- Value Until Time 1
  21:00,                                  !- Time 2 {hh:mm}
  21.1100006103516,                       !- Value Until Time 2
  24:00,                                  !- Time 3 {hh:mm}
  15.5600017971463;                       !- Value Until Time 3

Schedule:Day:Interval,
  Retail HtgSetp Sat Day,                 !- Name
  Temperature,                            !- Schedule Type Limits Name
  No,                                     !- Interpolate to Timestep
  06:00,                                  !- Time 1 {hh:mm}
  15.5599996778701,                       !- Value Until Time 1
  22:00,                                  !- Time 2 {hh:mm}
  21.1100006103516,                       !- Value Until Time 2
  24:00,                                  !- Time 3 {hh:mm}
  15.5599996778701;                       !- Value Until Time 3

Schedule:Week:Daily,
  Schedule:Week:Daily {59c0f7cf-cf60-4d94-93c3-0c440d00d6c7}, !- Name
  Retail HtgSetp Sun Day,                 !- Sunday Schedule:Day Name
  Retail HtgSetp Default,                 !- Monday Schedule:Day Name
  Retail HtgSetp Default,                 !- Tuesday Schedule:Day Name
  Retail HtgSetp Default,                 !- Wednesday Schedule:Day Name
  Retail HtgSetp Default,                 !- Thursday Schedule:Day Name
  Retail HtgSetp Default,                 !- Friday Schedule:Day Name
  Retail HtgSetp Sat Day,                 !- Saturday Schedule:Day Name
  Retail HtgSetp Default,                 !- Holiday Schedule:Day Name
  Retail HtgSetp Summer Design Day,       !- SummerDesignDay Schedule:Day Name
  Retail HtgSetp Winter Design Day,       !- WinterDesignDay Schedule:Day Name
  Retail HtgSetp Default,                 !- CustomDay1 Schedule:Day Name
  Retail HtgSetp Default;                 !- CustomDay2 Schedule:Day Name

Schedule:Year,
  Retail HtgSetp,                         !- Name
  Temperature,                            !- Schedule Type Limits Name
  Schedule:Week:Daily {59c0f7cf-cf60-4d94-93c3-0c440d00d6c7}, !- Schedule:Week Name 1
  1,                                      !- Start Month 1
  1,                                      !- Start Day 1
  12,                                     !- End Month 1
  31;                                     !- End Day 1

Schedule:Day:Interval,
  Retail HtgSetp Summer Design Day,       !- Name
  Temperature,                            !- Schedule Type Limits Name
  No,                                     !- Interpolate to Timestep
  24:00,                                  !- Time 1 {hh:mm}
  15.6;                                   !- Value Until Time 1

Schedule:Day:Interval,
  Retail HtgSetp Winter Design Day,       !- Name
  Temperature,                            !- Schedule Type Limits Name
  No,                                     !- Interpolate to Timestep
  24:00,                                  !- Time 1 {hh:mm}
  21;                                     !- Value Until Time 1

Schedule:Day:Interval,
  Retail ClgSetp Sun Day,                 !- Name
  Temperature,                            !- Schedule Type Limits Name
  No,                                     !- Interpolate to Timestep
  08:00,                                  !- Time 1 {hh:mm}
  30.0000000000001,                       !- Value Until Time 1
  17:00,                                  !- Time 2 {hh:mm}
  24.0000025431315,                       !- Value Until Time 2
  24:00,                                  !- Time 3 {hh:mm}
  30.0000000000001;                       !- Value Until Time 3

Schedule:Day:Interval,
  Retail ClgSetp Default,                 !- Name
  Temperature,                            !- Schedule Type Limits Name
  No,                                     !- Interpolate to Timestep
  06:00,                                  !- Time 1 {hh:mm}
  30,                                     !- Value Until Time 1
  21:00,                                  !- Time 2 {hh:mm}
  24,                                     !- Value Until Time 2
  24:00,                                  !- Time 3 {hh:mm}
  30;                                     !- Value Until Time 3

Schedule:Day:Interval,
  Retail ClgSetp Sat Day,                 !- Name
  Temperature,                            !- Schedule Type Limits Name
  No,                                     !- Interpolate to Timestep
  06:00,                                  !- Time 1 {hh:mm}
  30,                                     !- Value Until Time 1
  22:00,                                  !- Time 2 {hh:mm}
  24,                                     !- Value Until Time 2
  24:00,                                  !- Time 3 {hh:mm}
  30;                                     !- Value Until Time 3

Schedule:Week:Daily,
  Schedule:Week:Daily {55f796d8-d6d9-457b-9185-19d11f88abcc}, !- Name
  Retail ClgSetp Sun Day,                 !- Sunday Schedule:Day Name
  Retail ClgSetp Default,                 !- Monday Schedule:Day Name
  Retail ClgSetp Default,                 !- Tuesday Schedule:Day Name
  Retail ClgSetp Default,                 !- Wednesday Schedule:Day Name
  Retail ClgSetp Default,                 !- Thursday Schedule:Day Name
  Retail ClgSetp Default,                 !- Friday Schedule:Day Name
  Retail ClgSetp Sat Day,                 !- Saturday Schedule:Day Name
  Retail ClgSetp Default,                 !- Holiday Schedule:Day Name
  Retail ClgSetp Summer Design Day,       !- SummerDesignDay Schedule:Day Name
  Retail ClgSetp Winter Design Day,       !- WinterDesignDay Schedule:Day Name
  Retail ClgSetp Default,                 !- CustomDay1 Schedule:Day Name
  Retail ClgSetp Default;                 !- CustomDay2 Schedule:Day Name

Schedule:Year,
  Retail ClgSetp,                         !- Name
  Temperature,                            !- Schedule Type Limits Name
  Schedule:Week:Daily {55f796d8-d6d9-457b-9185-19d11f88abcc}, !- Schedule:Week Name 1
  1,                                      !- Start Month 1
  1,                                      !- Start Day 1
  12,                                     !- End Month 1
  31;                                     !- End Day 1

Schedule:Day:Interval,
  Retail ClgSetp Summer Design Day,       !- Name
  Temperature,                            !- Schedule Type Limits Name
  No,                                     !- Interpolate to Timestep
  06:00,                                  !- Time 1 {hh:mm}
  30,                                     !- Value Until Time 1
  21:00,                                  !- Time 2 {hh:mm}
  24,                                     !- Value Until Time 2
  24:00,                                  !- Time 3 {hh:mm}
  30;                                     !- Value Until Time 3

Schedule:Day:Interval,
  Retail ClgSetp Winter Design Day,       !- Name
  Temperature,                            !- Schedule Type Limits Name
  No,                                     !- Interpolate to Timestep
  24:00,                                  !- Time 1 {hh:mm}
  30;                                     !- Value Until Time 1

ZoneHVAC:EquipmentConnections,
  Back_Space ZN,                          !- Zone Name
  Back_Space ZN Equipment List,           !- Zone Conditioning Equipment List Name
  Back_Space ZN Inlet Node List,          !- Zone Air Inlet Node or NodeList Name
  ,                                       !- Zone Air Exhaust Node or NodeList Name
  Node 3,                                 !- Zone Air Node Name
  Node 16;                                !- Zone Return Air Node Name

NodeList,
  Back_Space ZN Inlet Node List,          !- Name
  Node 10;                                !- Node Name 1

AirTerminal:SingleDuct:Uncontrolled,
  Back_Space ZN PSZ-AC Diffuser,          !- Name
  Always On Discrete,                     !- Availability Schedule Name
  Node 10,                                !- Zone Supply Air Node Name
  AutoSize;                               !- Maximum Air Flow Rate {m3/s}

ZoneHVAC:EquipmentList,
  Back_Space ZN Equipment List,           !- Name
  AirTerminal:SingleDuct:Uncontrolled,    !- Zone Equipment Object Type 1
  Back_Space ZN PSZ-AC Diffuser,          !- Zone Equipment Name 1
  1,                                      !- Zone Equipment Cooling Sequence 1
  1;                                      !- Zone Equipment Heating or No-Load Sequence 1

Sizing:Zone,
  Back_Space ZN,                          !- Zone or ZoneList Name